#======================================================================

# CRYSTAL DATA

#----------------------------------------------------------------------

data_VESTA_phase_1


_chemical_name_common                  'bi2 fe4 o9'
_cell_length_a                         7.90500
_cell_length_b                         8.42800
_cell_length_c                         6.00500
_cell_angle_alpha                      90
_cell_angle_beta                       90
_cell_angle_gamma                      90
_space_group_name_H-M_alt              'P b a m'
_space_group_IT_number                 55

loop_
_space_group_symop_operation_xyz
   'x, y, z'
   '-x+1/2, -y+1/2, -z+1/2'
   '-x+1/2, -y+1/2, z'
   'x, y, -z+1/2'
   '-x, y+1/2, -z+1/2'
   'x+1/2, -y, z'
   'x+1/2, -y, -z+1/2'
   '-x, y+1/2, z'

loop_
   _atom_site_label
   _atom_type_oxidation_number
   _atom_site_occupancy
   _atom_site_fract_x
   _atom_site_fract_y
   _atom_site_fract_z
   _atom_site_adp_type
   _atom_site_U_iso_or_equiv
   _atom_site_type_symbol
   Bi   +3    1.0     0.926100      0.921500      0.750000     Uiso  0.014180 Bi
   Fe1  +3    1.0     0.250000      0.750000      0.007000     Uiso  0.014560 Fe
   Fe2  +3    1.0     0.101000      0.084000      0.250000     Uiso  0.015830 Fe
   O1   -2    1.0     0.750000      0.750000      0.250000     Uiso  0.019000 O
   O2   -2    1.0     0.123000      0.948000      0.993000     Uiso  0.012670 O
   O3   -2    1.0     0.887000      0.168000      0.250000     Uiso  0.015200 O
   O4   -2    1.0     0.893000      0.165000      0.750000     Uiso  0.020260 O
